
     RDKit          3D

 33 36  0  0  0  0  0  0  0  0999 V2000
    1.5630  -29.4590  -44.8600 C   0  0  0  0  0  0  0  0  0  0  0  0
   -0.7920  -29.4120  -45.4980 C   0  0  0  0  0  0  0  0  0  0  0  0
    0.2420  -29.9320  -44.6800 C   0  0  0  0  0  0  0  0  0  0  0  0
   -0.1610  -30.9300  -43.7170 C   0  0  0  0  0  0  0  0  0  0  0  0
    0.7060  -31.5050  -42.8510 N   0  0  0  0  0  0  0  0  0  0  0  0
   -3.7520  -31.2180  -44.2990 C   0  0  0  0  0  0  0  0  0  0  0  0
    0.2870  -26.5400  -48.4530 C   0  0  0  0  0  0  0  0  0  0  0  0
    5.2910  -27.1880  -45.3830 C   0  0  0  0  0  0  0  0  0  0  0  0
    4.9990  -29.5370  -45.7500 C   0  0  0  0  0  0  0  0  0  0  0  0
    0.3830  -32.5270  -41.8440 C   0  0  1  0  0  0  0  0  0  0  0  0
    0.8070  -33.9000  -42.3290 C   0  0  0  0  0  0  0  0  0  0  0  0
    2.1500  -34.2240  -42.5120 C   0  0  0  0  0  0  0  0  0  0  0  0
    1.5420  -36.4160  -43.2700 C   0  0  0  0  0  0  0  0  0  0  0  0
   -0.1610  -34.8430  -42.6510 C   0  0  0  0  0  0  0  0  0  0  0  0
   -0.4730  -28.4350  -46.4720 C   0  0  0  0  0  0  0  0  0  0  0  0
    4.2830  -28.3150  -45.2090 C   0  0  2  0  0  0  0  0  0  0  0  0
    5.8960  -28.9300  -46.7880 C   0  0  0  0  0  0  0  0  0  0  0  0
    0.8150  -27.9940  -46.6200 C   0  0  0  0  0  0  0  0  0  0  0  0
    1.0560  -32.1510  -40.5270 C   0  0  0  0  0  0  0  0  0  0  0  0
    2.5380  -35.4840  -42.9710 C   0  0  0  0  0  0  0  0  0  0  0  0
    0.1950  -36.1090  -43.1020 C   0  0  0  0  0  0  0  0  0  0  0  0
   -0.8700  -37.1060  -43.4280 C   0  0  1  0  0  0  0  0  0  0  0  0
    1.8450  -28.5130  -45.8000 C   0  0  0  0  0  0  0  0  0  0  0  0
   -2.3420  -30.7420  -44.4360 C   0  0  2  0  0  0  0  0  0  0  0  0
   -1.7760  -36.6150  -44.2590 F   0  0  0  0  0  0  0  0  0  0  0  0
   -0.4120  -38.2310  -43.9840 F   0  0  0  0  0  0  0  0  0  0  0  0
   -1.5670  -37.4660  -42.3680 F   0  0  0  0  0  0  0  0  0  0  0  0
   -2.0970  -29.8240  -45.3890 N   0  0  0  0  0  0  0  0  0  0  0  0
    3.8730  -35.7940  -43.1310 N   0  0  0  0  0  0  0  0  0  0  0  0
   -1.4300  -31.3240  -43.6460 N   0  0  0  0  0  0  0  0  0  0  0  0
    3.1030  -28.0030  -46.0310 O   0  0  0  0  0  0  0  0  0  0  0  0
    1.2310  -27.0420  -47.5120 O   0  0  0  0  0  0  0  0  0  0  0  0
    6.2790  -27.6880  -46.2630 O   0  0  0  0  0  0  0  0  0  0  0  0
  1  3  1  0
  1 23  1  0
  2  3  1  0
  2 15  1  0
  2 28  1  0
  3  4  1  0
  4  5  1  0
  4 30  1  0
  5 10  1  0
 24  6  1  6
  7 32  1  0
  8 16  1  0
  8 33  1  0
  9 16  1  0
  9 17  1  0
 10 11  1  0
 10 19  1  1
 11 12  1  0
 11 14  1  0
 12 20  1  0
 13 20  1  0
 13 21  1  0
 14 21  1  0
 15 18  1  0
 16 31  1  6
 17 33  1  0
 18 23  1  0
 18 32  1  0
 20 29  1  0
 21 22  1  0
 22 25  1  6
 22 26  1  0
 22 27  1  0
 23 31  1  0
 24 28  1  0
 24 30  1  0
M  END
